output/2_TAP2_1/Cargas_BT_DU01_2_TAP2_1.dss
New "Load.BT_1284_M1" bus1="UC14865.2.3.4" phases=2 conn=delta model=2 kv=0.38 kw = 524.4790196701482 pf=0.92 status=variable vmaxpu=1.5 vminpu=0.93 daily="RES_2_DU" 
New "Load.BT_1284_M2" bus1="UC14865.2.3.4" phases=2 conn=delta model=3 kv=0.38 kw = 524.4790196701482 pf=0.92 status=variable vmaxpu=1.5 vminpu=0.93 daily="RES_2_DU"
 
New "Load.BT_7585_M1" bus1="UC15172.1.4" phases=1 conn=delta model=2 kv=0.22 kw = 341.406154313587 pf=0.92 status=variable vmaxpu=1.5 vminpu=0.93 daily="RES_2_DU" 
New "Load.BT_7585_M2" bus1="UC15172.1.4" phases=1 conn=delta model=3 kv=0.22 kw = 341.406154313587 pf=0.92 status=variable vmaxpu=1.5 vminpu=0.93 daily="RES_2_DU"
 
New "Load.BT_1321_M1" bus1="UC15176.1.2.3.4" phases=3 conn=delta model=2 kv=0.38 kw = 0.0 pf=0.92 status=variable vmaxpu=1.5 vminpu=0.93 daily="COM_13_DU" 
New "Load.BT_1321_M2" bus1="UC15176.1.2.3.4" phases=3 conn=delta model=3 kv=0.38 kw = 0.0 pf=0.92 status=variable vmaxpu=1.5 vminpu=0.93 daily="COM_13_DU"
 
New "Load.BT_1284_M1" bus1="UC14865.3.1.4" phases=2 conn=delta model=2 kv=0.38 kw = 578.9060877491258 pf=0.92 status=variable vmaxpu=1.5 vminpu=0.93 daily="RES_2_DU" 
New "Load.BT_1284_M2" bus1="UC14865.3.1.4" phases=2 conn=delta model=3 kv=0.38 kw = 578.9060877491258 pf=0.92 status=variable vmaxpu=1.5 vminpu=0.93 daily="RES_2_DU"
 
New "Load.BT_7553_M1" bus1="UC20061.1.2.3.4" phases=3 conn=delta model=2 kv=0.38 kw = 0.0 pf=0.92 status=variable vmaxpu=1.5 vminpu=0.93 daily="RES_7_DU" 
New "Load.BT_7553_M2" bus1="UC20061.1.2.3.4" phases=3 conn=delta model=3 kv=0.38 kw = 0.0 pf=0.92 status=variable vmaxpu=1.5 vminpu=0.93 daily="RES_7_DU"
 
New "Load.BT_2523_M1" bus1="UC20136.3.4" phases=1 conn=delta model=2 kv=0.22 kw = 0.0 pf=0.92 status=variable vmaxpu=1.5 vminpu=0.93 daily="RES_3_DU" 
New "Load.BT_2523_M2" bus1="UC20136.3.4" phases=1 conn=delta model=3 kv=0.22 kw = 0.0 pf=0.92 status=variable vmaxpu=1.5 vminpu=0.93 daily="RES_3_DU"
 
New "Load.BT_1656_M1" bus1="UC1545.1.4" phases=1 conn=delta model=2 kv=0.22 kw = 0.0 pf=0.92 status=variable vmaxpu=1.5 vminpu=0.93 daily="RES_3_DU" 
New "Load.BT_1656_M2" bus1="UC1545.1.4" phases=1 conn=delta model=3 kv=0.22 kw = 0.0 pf=0.92 status=variable vmaxpu=1.5 vminpu=0.93 daily="RES_3_DU"
 
New "Load.BT_446_M1" bus1="UC16148.1.2.3.4" phases=3 conn=delta model=2 kv=0.38 kw = 0.0 pf=0.92 status=variable vmaxpu=1.5 vminpu=0.93 daily="RES_3_DU" 
New "Load.BT_446_M2" bus1="UC16148.1.2.3.4" phases=3 conn=delta model=3 kv=0.38 kw = 0.0 pf=0.92 status=variable vmaxpu=1.5 vminpu=0.93 daily="RES_3_DU"
 
New "Load.BT_7293_M1" bus1="UC20138.2.3.4" phases=2 conn=delta model=2 kv=0.38 kw = 0.0 pf=0.92 status=variable vmaxpu=1.5 vminpu=0.93 daily="RES_7_DU" 
New "Load.BT_7293_M2" bus1="UC20138.2.3.4" phases=2 conn=delta model=3 kv=0.38 kw = 0.0 pf=0.92 status=variable vmaxpu=1.5 vminpu=0.93 daily="RES_7_DU"
 
New "Load.BT_1288_M1" bus1="UC8495.1.4" phases=1 conn=delta model=2 kv=0.22 kw = 0.0 pf=0.92 status=variable vmaxpu=1.5 vminpu=0.93 daily="RES_7_DU" 
New "Load.BT_1288_M2" bus1="UC8495.1.4" phases=1 conn=delta model=3 kv=0.22 kw = 0.0 pf=0.92 status=variable vmaxpu=1.5 vminpu=0.93 daily="RES_7_DU"
 
New "Load.BT_2743_M1" bus1="UC6417.2.4" phases=1 conn=delta model=2 kv=0.22 kw = 0.0 pf=0.92 status=variable vmaxpu=1.5 vminpu=0.93 daily="RES_3_DU" 
New "Load.BT_2743_M2" bus1="UC6417.2.4" phases=1 conn=delta model=3 kv=0.22 kw = 0.0 pf=0.92 status=variable vmaxpu=1.5 vminpu=0.93 daily="RES_3_DU"
 
New "Load.BT_7794_M1" bus1="UC16133.1.4" phases=1 conn=delta model=2 kv=0.22 kw = 0.0 pf=0.92 status=variable vmaxpu=1.5 vminpu=0.93 daily="RES_7_DU" 
New "Load.BT_7794_M2" bus1="UC16133.1.4" phases=1 conn=delta model=3 kv=0.22 kw = 0.0 pf=0.92 status=variable vmaxpu=1.5 vminpu=0.93 daily="RES_7_DU"
 
New "Load.BT_660_M1" bus1="UC15632.3.4" phases=1 conn=delta model=2 kv=0.22 kw = 0.0 pf=0.92 status=variable vmaxpu=1.5 vminpu=0.93 daily="RES_3_DU" 
New "Load.BT_660_M2" bus1="UC15632.3.4" phases=1 conn=delta model=3 kv=0.22 kw = 0.0 pf=0.92 status=variable vmaxpu=1.5 vminpu=0.93 daily="RES_3_DU"
 
New "Load.BT_8598_M1" bus1="UC16137.1.2.3.4" phases=3 conn=delta model=2 kv=0.38 kw = 0.0 pf=0.92 status=variable vmaxpu=1.5 vminpu=0.93 daily="RES_3_DU" 
New "Load.BT_8598_M2" bus1="UC16137.1.2.3.4" phases=3 conn=delta model=3 kv=0.38 kw = 0.0 pf=0.92 status=variable vmaxpu=1.5 vminpu=0.93 daily="RES_3_DU"
 
New "Load.BT_8649_M1" bus1="UC16131.1.2.3.4" phases=3 conn=delta model=2 kv=0.38 kw = 0.0 pf=0.92 status=variable vmaxpu=1.5 vminpu=0.93 daily="RES_3_DU" 
New "Load.BT_8649_M2" bus1="UC16131.1.2.3.4" phases=3 conn=delta model=3 kv=0.38 kw = 0.0 pf=0.92 status=variable vmaxpu=1.5 vminpu=0.93 daily="RES_3_DU"
 
New "Load.BT_8569_M1" bus1="UC20135.1.2.4" phases=2 conn=delta model=2 kv=0.38 kw = 0.0 pf=0.92 status=variable vmaxpu=1.5 vminpu=0.93 daily="RES_3_DU" 
New "Load.BT_8569_M2" bus1="UC20135.1.2.4" phases=2 conn=delta model=3 kv=0.38 kw = 0.0 pf=0.92 status=variable vmaxpu=1.5 vminpu=0.93 daily="RES_3_DU"
 
New "Load.BT_856_M1" bus1="UC1889.3.4" phases=1 conn=delta model=2 kv=0.22 kw = 0.0 pf=0.92 status=variable vmaxpu=1.5 vminpu=0.93 daily="RES_7_DU" 
New "Load.BT_856_M2" bus1="UC1889.3.4" phases=1 conn=delta model=3 kv=0.22 kw = 0.0 pf=0.92 status=variable vmaxpu=1.5 vminpu=0.93 daily="RES_7_DU"
 
New "Load.BT_2601_M1" bus1="UC15849.2.4" phases=1 conn=delta model=2 kv=0.22 kw = 14.987984912945615 pf=0.92 status=variable vmaxpu=1.5 vminpu=0.93 daily="RES_5_DU" 
New "Load.BT_2601_M2" bus1="UC15849.2.4" phases=1 conn=delta model=3 kv=0.22 kw = 14.987984912945615 pf=0.92 status=variable vmaxpu=1.5 vminpu=0.93 daily="RES_5_DU"
 
New "Load.BT_7733_M1" bus1="UC20092.2.3.4" phases=2 conn=delta model=2 kv=0.38 kw = 0.0 pf=0.92 status=variable vmaxpu=1.5 vminpu=0.93 daily="RES_3_DU" 
New "Load.BT_7733_M2" bus1="UC20092.2.3.4" phases=2 conn=delta model=3 kv=0.38 kw = 0.0 pf=0.92 status=variable vmaxpu=1.5 vminpu=0.93 daily="RES_3_DU"
 
New "Load.BT_7733_M1" bus1="UC20093.3.1.4" phases=2 conn=delta model=2 kv=0.38 kw = 0.0 pf=0.92 status=variable vmaxpu=1.5 vminpu=0.93 daily="RES_7_DU" 
New "Load.BT_7733_M2" bus1="UC20093.3.1.4" phases=2 conn=delta model=3 kv=0.38 kw = 0.0 pf=0.92 status=variable vmaxpu=1.5 vminpu=0.93 daily="RES_7_DU"
 
New "Load.BT_7734_M1" bus1="UC20094.2.3.4" phases=2 conn=delta model=2 kv=0.38 kw = 0.0 pf=0.92 status=variable vmaxpu=1.5 vminpu=0.93 daily="RES_7_DU" 
New "Load.BT_7734_M2" bus1="UC20094.2.3.4" phases=2 conn=delta model=3 kv=0.38 kw = 0.0 pf=0.92 status=variable vmaxpu=1.5 vminpu=0.93 daily="RES_7_DU"
 
New "Load.BT_2245_M1" bus1="UC20095.1.2.4" phases=2 conn=delta model=2 kv=0.38 kw = 0.0 pf=0.92 status=variable vmaxpu=1.5 vminpu=0.93 daily="RES_3_DU" 
New "Load.BT_2245_M2" bus1="UC20095.1.2.4" phases=2 conn=delta model=3 kv=0.38 kw = 0.0 pf=0.92 status=variable vmaxpu=1.5 vminpu=0.93 daily="RES_3_DU"
 
New "Load.BT_1794_M1" bus1="UC15505.3.4" phases=1 conn=delta model=2 kv=0.22 kw = 0.0 pf=0.92 status=variable vmaxpu=1.5 vminpu=0.93 daily="RES_2_DU" 
New "Load.BT_1794_M2" bus1="UC15505.3.4" phases=1 conn=delta model=3 kv=0.22 kw = 0.0 pf=0.92 status=variable vmaxpu=1.5 vminpu=0.93 daily="RES_2_DU"
 
New "Load.BT_657_M1" bus1="UC14583.1.4" phases=1 conn=delta model=2 kv=0.22 kw = 732.2914614262446 pf=0.92 status=variable vmaxpu=1.5 vminpu=0.93 daily="RES_2_DU" 
New "Load.BT_657_M2" bus1="UC14583.1.4" phases=1 conn=delta model=3 kv=0.22 kw = 732.2914614262446 pf=0.92 status=variable vmaxpu=1.5 vminpu=0.93 daily="RES_2_DU"
 
New "Load.BT_1284_M1" bus1="UC13787.3.1.4" phases=2 conn=delta model=2 kv=0.38 kw = 410.67696823228584 pf=0.92 status=variable vmaxpu=1.5 vminpu=0.93 daily="RES_2_DU" 
New "Load.BT_1284_M2" bus1="UC13787.3.1.4" phases=2 conn=delta model=3 kv=0.38 kw = 410.67696823228584 pf=0.92 status=variable vmaxpu=1.5 vminpu=0.93 daily="RES_2_DU"
 
New "Load.BT_7306_M1" bus1="UC15143.3.4" phases=1 conn=delta model=2 kv=0.22 kw = 593.7498335888471 pf=0.92 status=variable vmaxpu=1.5 vminpu=0.93 daily="RES_2_DU" 
New "Load.BT_7306_M2" bus1="UC15143.3.4" phases=1 conn=delta model=3 kv=0.22 kw = 593.7498335888471 pf=0.92 status=variable vmaxpu=1.5 vminpu=0.93 daily="RES_2_DU"
 
New "Load.BT_7829_M1" bus1="UC15152.2.4" phases=1 conn=delta model=2 kv=0.22 kw = 821.3539364645717 pf=0.92 status=variable vmaxpu=1.5 vminpu=0.93 daily="RES_2_DU" 
New "Load.BT_7829_M2" bus1="UC15152.2.4" phases=1 conn=delta model=3 kv=0.22 kw = 821.3539364645717 pf=0.92 status=variable vmaxpu=1.5 vminpu=0.93 daily="RES_2_DU"
 
New "Load.BT_2405_M1" bus1="UC4970.2.3.4" phases=2 conn=delta model=2 kv=0.38 kw = 2097.553644852856 pf=0.92 status=variable vmaxpu=1.5 vminpu=0.93 daily="RES_4_DU" 
New "Load.BT_2405_M2" bus1="UC4970.2.3.4" phases=2 conn=delta model=3 kv=0.38 kw = 2097.553644852856 pf=0.92 status=variable vmaxpu=1.5 vminpu=0.93 daily="RES_4_DU"
 
New "Load.BT_2823_M1" bus1="UC4516.2.4" phases=1 conn=delta model=2 kv=0.22 kw = 336.45823903368 pf=0.92 status=variable vmaxpu=1.5 vminpu=0.93 daily="RES_2_DU" 
New "Load.BT_2823_M2" bus1="UC4516.2.4" phases=1 conn=delta model=3 kv=0.22 kw = 336.45823903368 pf=0.92 status=variable vmaxpu=1.5 vminpu=0.93 daily="RES_2_DU"
 
New "Load.BT_7463_M1" bus1="UC4971.2.3.4" phases=2 conn=delta model=2 kv=0.38 kw = 1038.4079322679504 pf=0.92 status=variable vmaxpu=1.5 vminpu=0.93 daily="RES_1_DU" 
New "Load.BT_7463_M2" bus1="UC4971.2.3.4" phases=2 conn=delta model=3 kv=0.38 kw = 1038.4079322679504 pf=0.92 status=variable vmaxpu=1.5 vminpu=0.93 daily="RES_1_DU"
 
New "Load.BT_2049_M1" bus1="UC4838.2.3.4" phases=2 conn=delta model=2 kv=0.38 kw = 611.3292916410342 pf=0.92 status=variable vmaxpu=1.5 vminpu=0.93 daily="RES_13_DU" 
New "Load.BT_2049_M2" bus1="UC4838.2.3.4" phases=2 conn=delta model=3 kv=0.38 kw = 611.3292916410342 pf=0.92 status=variable vmaxpu=1.5 vminpu=0.93 daily="RES_13_DU"
 
New "Load.BT_874_M1" bus1="UC13502.1.2.3.4" phases=3 conn=delta model=2 kv=0.38 kw = 3433.8496381538935 pf=0.92 status=variable vmaxpu=1.5 vminpu=0.93 daily="RES_13_DU" 
New "Load.BT_874_M2" bus1="UC13502.1.2.3.4" phases=3 conn=delta model=3 kv=0.38 kw = 3433.8496381538935 pf=0.92 status=variable vmaxpu=1.5 vminpu=0.93 daily="RES_13_DU"
 
New "Load.BT_893_M1" bus1="UC9729.1.2.3.4" phases=3 conn=delta model=2 kv=0.38 kw = 1298.0908846507612 pf=0.92 status=variable vmaxpu=1.5 vminpu=0.93 daily="COM_1_DU" 
New "Load.BT_893_M2" bus1="UC9729.1.2.3.4" phases=3 conn=delta model=3 kv=0.38 kw = 1298.0908846507612 pf=0.92 status=variable vmaxpu=1.5 vminpu=0.93 daily="COM_1_DU"
 
New "Load.BT_6901_M1" bus1="UC15134.3.4" phases=1 conn=delta model=2 kv=0.22 kw = 920.3122420627129 pf=0.92 status=variable vmaxpu=1.5 vminpu=0.93 daily="RES_2_DU" 
New "Load.BT_6901_M2" bus1="UC15134.3.4" phases=1 conn=delta model=3 kv=0.22 kw = 920.3122420627129 pf=0.92 status=variable vmaxpu=1.5 vminpu=0.93 daily="RES_2_DU"
 
New "Load.BT_2271_M1" bus1="UC3269.2.4" phases=1 conn=delta model=2 kv=0.22 kw = 212.7603570360035 pf=0.92 status=variable vmaxpu=1.5 vminpu=0.93 daily="RES_2_DU" 
New "Load.BT_2271_M2" bus1="UC3269.2.4" phases=1 conn=delta model=3 kv=0.22 kw = 212.7603570360035 pf=0.92 status=variable vmaxpu=1.5 vminpu=0.93 daily="RES_2_DU"
 
New "Load.BT_363_M1" bus1="UC8092.3.4" phases=1 conn=delta model=2 kv=0.22 kw = 1250.3279184450832 pf=0.92 status=variable vmaxpu=1.5 vminpu=0.93 daily="RES_1_DU" 
New "Load.BT_363_M2" bus1="UC8092.3.4" phases=1 conn=delta model=3 kv=0.22 kw = 1250.3279184450832 pf=0.92 status=variable vmaxpu=1.5 vminpu=0.93 daily="RES_1_DU"
 
New "Load.BT_1388_M1" bus1="UC16119.1.2.3.4" phases=3 conn=delta model=2 kv=0.38 kw = 0.0 pf=0.92 status=variable vmaxpu=1.5 vminpu=0.93 daily="RES_3_DU" 
New "Load.BT_1388_M2" bus1="UC16119.1.2.3.4" phases=3 conn=delta model=3 kv=0.38 kw = 0.0 pf=0.92 status=variable vmaxpu=1.5 vminpu=0.93 daily="RES_3_DU"
 
New "Load.BT_7601_M1" bus1="UC14406.1.4" phases=1 conn=delta model=2 kv=0.22 kw = 0.0 pf=0.92 status=variable vmaxpu=1.5 vminpu=0.93 daily="RES_3_DU" 
New "Load.BT_7601_M2" bus1="UC14406.1.4" phases=1 conn=delta model=3 kv=0.22 kw = 0.0 pf=0.92 status=variable vmaxpu=1.5 vminpu=0.93 daily="RES_3_DU"
 
New "Load.BT_984_M1" bus1="UC3585.1.2.3.4" phases=3 conn=delta model=2 kv=0.38 kw = 0.0 pf=0.92 status=variable vmaxpu=1.5 vminpu=0.93 daily="RES_3_DU" 
New "Load.BT_984_M2" bus1="UC3585.1.2.3.4" phases=3 conn=delta model=3 kv=0.38 kw = 0.0 pf=0.92 status=variable vmaxpu=1.5 vminpu=0.93 daily="RES_3_DU"
 
New "Load.BT_6510_M1" bus1="UC16127.1.4" phases=1 conn=delta model=2 kv=0.22 kw = 0.0 pf=0.92 status=variable vmaxpu=1.5 vminpu=0.93 daily="RES_7_DU" 
New "Load.BT_6510_M2" bus1="UC16127.1.4" phases=1 conn=delta model=3 kv=0.22 kw = 0.0 pf=0.92 status=variable vmaxpu=1.5 vminpu=0.93 daily="RES_7_DU"
 
New "Load.BT_2175_M1" bus1="UC20134.1.2.3.4" phases=3 conn=delta model=2 kv=0.38 kw = 0.0 pf=0.92 status=variable vmaxpu=1.5 vminpu=0.93 daily="RES_7_DU" 
New "Load.BT_2175_M2" bus1="UC20134.1.2.3.4" phases=3 conn=delta model=3 kv=0.38 kw = 0.0 pf=0.92 status=variable vmaxpu=1.5 vminpu=0.93 daily="RES_7_DU"
 
New "Load.BT_6508_M1" bus1="UC15833.1.2.4" phases=2 conn=delta model=2 kv=0.38 kw = 0.0 pf=0.92 status=variable vmaxpu=1.5 vminpu=0.93 daily="RES_1_DU" 
New "Load.BT_6508_M2" bus1="UC15833.1.2.4" phases=2 conn=delta model=3 kv=0.38 kw = 0.0 pf=0.92 status=variable vmaxpu=1.5 vminpu=0.93 daily="RES_1_DU"
 
New "Load.BT_2830_M1" bus1="UC3356.1.4" phases=1 conn=delta model=2 kv=0.22 kw = 766.9268683855942 pf=0.92 status=variable vmaxpu=1.5 vminpu=0.93 daily="RES_2_DU" 
New "Load.BT_2830_M2" bus1="UC3356.1.4" phases=1 conn=delta model=3 kv=0.22 kw = 766.9268683855942 pf=0.92 status=variable vmaxpu=1.5 vminpu=0.93 daily="RES_2_DU"
 
New "Load.BT_2830_M1" bus1="UC3356.2.4" phases=1 conn=delta model=2 kv=0.22 kw = 1200.6698917182734 pf=0.92 status=variable vmaxpu=1.5 vminpu=0.93 daily="RES_12_DU" 
New "Load.BT_2830_M2" bus1="UC3356.2.4" phases=1 conn=delta model=3 kv=0.22 kw = 1200.6698917182734 pf=0.92 status=variable vmaxpu=1.5 vminpu=0.93 daily="RES_12_DU"
 
New "Load.BT_7605_M1" bus1="UC11738.3.4" phases=1 conn=delta model=2 kv=0.22 kw = 224.81977369418422 pf=0.92 status=variable vmaxpu=1.5 vminpu=0.93 daily="RES_5_DU" 
New "Load.BT_7605_M2" bus1="UC11738.3.4" phases=1 conn=delta model=3 kv=0.22 kw = 224.81977369418422 pf=0.92 status=variable vmaxpu=1.5 vminpu=0.93 daily="RES_5_DU"
 
New "Load.BT_7725_M1" bus1="UC20089.3.4" phases=1 conn=delta model=2 kv=0.22 kw = 69.27081391869882 pf=0.92 status=variable vmaxpu=1.5 vminpu=0.93 daily="RES_2_DU" 
New "Load.BT_7725_M2" bus1="UC20089.3.4" phases=1 conn=delta model=3 kv=0.22 kw = 69.27081391869882 pf=0.92 status=variable vmaxpu=1.5 vminpu=0.93 daily="RES_2_DU"
 
New "Load.BT_2519_M1" bus1="UC15842.2.4" phases=1 conn=delta model=2 kv=0.22 kw = 10.291609439076657 pf=0.92 status=variable vmaxpu=1.5 vminpu=0.93 daily="RES_3_DU" 
New "Load.BT_2519_M2" bus1="UC15842.2.4" phases=1 conn=delta model=3 kv=0.22 kw = 10.291609439076657 pf=0.92 status=variable vmaxpu=1.5 vminpu=0.93 daily="RES_3_DU"
 
New "Load.BT_6668_M1" bus1="UC15843.2.3.4" phases=2 conn=delta model=2 kv=0.38 kw = 63.57599585313983 pf=0.92 status=variable vmaxpu=1.5 vminpu=0.93 daily="RES_1_DU" 
New "Load.BT_6668_M2" bus1="UC15843.2.3.4" phases=2 conn=delta model=3 kv=0.38 kw = 63.57599585313983 pf=0.92 status=variable vmaxpu=1.5 vminpu=0.93 daily="RES_1_DU"
 
New "Load.BT_7732_M1" bus1="UC20090.2.3.4" phases=2 conn=delta model=2 kv=0.38 kw = 40.93192812675932 pf=0.92 status=variable vmaxpu=1.5 vminpu=0.93 daily="RES_12_DU" 
New "Load.BT_7732_M2" bus1="UC20090.2.3.4" phases=2 conn=delta model=3 kv=0.38 kw = 40.93192812675932 pf=0.92 status=variable vmaxpu=1.5 vminpu=0.93 daily="RES_12_DU"
 
New "Load.BT_7733_M1" bus1="UC20091.2.3.4" phases=2 conn=delta model=2 kv=0.38 kw = 0.0 pf=0.92 status=variable vmaxpu=1.5 vminpu=0.93 daily="RES_5_DU" 
New "Load.BT_7733_M2" bus1="UC20091.2.3.4" phases=2 conn=delta model=3 kv=0.38 kw = 0.0 pf=0.92 status=variable vmaxpu=1.5 vminpu=0.93 daily="RES_5_DU"
 
New "Load.BT_2860_M1" bus1="UC2244.1.4" phases=1 conn=delta model=2 kv=0.22 kw = 1157.6235522564264 pf=0.92 status=variable vmaxpu=1.5 vminpu=0.93 daily="RES_13_DU" 
New "Load.BT_2860_M2" bus1="UC2244.1.4" phases=1 conn=delta model=3 kv=0.22 kw = 1157.6235522564264 pf=0.92 status=variable vmaxpu=1.5 vminpu=0.93 daily="RES_13_DU"
 
New "Load.BT_893_M1" bus1="UC9729.3.4" phases=1 conn=delta model=2 kv=0.22 kw = 285.31303505820074 pf=0.92 status=variable vmaxpu=1.5 vminpu=0.93 daily="COM_1_DU" 
New "Load.BT_893_M2" bus1="UC9729.3.4" phases=1 conn=delta model=3 kv=0.22 kw = 285.31303505820074 pf=0.92 status=variable vmaxpu=1.5 vminpu=0.93 daily="COM_1_DU"
 
New "Load.BT_893_M1" bus1="UC9729.2.4" phases=1 conn=delta model=2 kv=0.22 kw = 65.93888147536391 pf=0.92 status=variable vmaxpu=1.5 vminpu=0.93 daily="RES_10_DU" 
New "Load.BT_893_M2" bus1="UC9729.2.4" phases=1 conn=delta model=3 kv=0.22 kw = 65.93888147536391 pf=0.92 status=variable vmaxpu=1.5 vminpu=0.93 daily="RES_10_DU"
 
New "Load.BT_1939_M1" bus1="UC20043.2.3.4" phases=2 conn=delta model=2 kv=0.38 kw = 64.32289863879176 pf=0.92 status=variable vmaxpu=1.5 vminpu=0.93 daily="RES_2_DU" 
New "Load.BT_1939_M2" bus1="UC20043.2.3.4" phases=2 conn=delta model=3 kv=0.38 kw = 64.32289863879176 pf=0.92 status=variable vmaxpu=1.5 vminpu=0.93 daily="RES_2_DU"
 
New "Load.BT_8375_M1" bus1="UC4987.1.2.4" phases=2 conn=delta model=2 kv=0.38 kw = 267.1874251149812 pf=0.92 status=variable vmaxpu=1.5 vminpu=0.93 daily="RES_2_DU" 
New "Load.BT_8375_M2" bus1="UC4987.1.2.4" phases=2 conn=delta model=3 kv=0.38 kw = 267.1874251149812 pf=0.92 status=variable vmaxpu=1.5 vminpu=0.93 daily="RES_2_DU"
 
New "Load.BT_7746_M1" bus1="UC2758.3.4" phases=1 conn=delta model=2 kv=0.22 kw = 1225.2711570362087 pf=0.92 status=variable vmaxpu=1.5 vminpu=0.93 daily="RES_7_DU" 
New "Load.BT_7746_M2" bus1="UC2758.3.4" phases=1 conn=delta model=3 kv=0.22 kw = 1225.2711570362087 pf=0.92 status=variable vmaxpu=1.5 vminpu=0.93 daily="RES_7_DU"
 
New "Load.BT_830_M1" bus1="UC2488.1.4" phases=1 conn=delta model=2 kv=0.22 kw = 514.583189110334 pf=0.92 status=variable vmaxpu=1.5 vminpu=0.93 daily="RES_2_DU" 
New "Load.BT_830_M2" bus1="UC2488.1.4" phases=1 conn=delta model=3 kv=0.22 kw = 514.583189110334 pf=0.92 status=variable vmaxpu=1.5 vminpu=0.93 daily="RES_2_DU"
 
New "Load.BT_830_M1" bus1="UC2488.2.4" phases=1 conn=delta model=2 kv=0.22 kw = 331.5103237537729 pf=0.92 status=variable vmaxpu=1.5 vminpu=0.93 daily="RES_2_DU" 
New "Load.BT_830_M2" bus1="UC2488.2.4" phases=1 conn=delta model=3 kv=0.22 kw = 331.5103237537729 pf=0.92 status=variable vmaxpu=1.5 vminpu=0.93 daily="RES_2_DU"
 
New "Load.BT_830_M1" bus1="UC2488.3.4" phases=1 conn=delta model=2 kv=0.22 kw = 98.95830559814118 pf=0.92 status=variable vmaxpu=1.5 vminpu=0.93 daily="RES_2_DU" 
New "Load.BT_830_M2" bus1="UC2488.3.4" phases=1 conn=delta model=3 kv=0.22 kw = 98.95830559814118 pf=0.92 status=variable vmaxpu=1.5 vminpu=0.93 daily="RES_2_DU"
 
New "Load.BT_1284_M1" bus1="UC14865.2.3.4" phases=2 conn=delta model=2 kv=0.38 kw = 415.55116089750726 pf=0.92 status=variable vmaxpu=1.5 vminpu=0.93 daily="RES_11_DU" 
New "Load.BT_1284_M2" bus1="UC14865.2.3.4" phases=2 conn=delta model=3 kv=0.38 kw = 415.55116089750726 pf=0.92 status=variable vmaxpu=1.5 vminpu=0.93 daily="RES_11_DU"
 
New "Load.BT_7814_M1" bus1="UC15091.1.4" phases=1 conn=delta model=2 kv=0.22 kw = 341.406154313587 pf=0.92 status=variable vmaxpu=1.5 vminpu=0.93 daily="RES_2_DU" 
New "Load.BT_7814_M2" bus1="UC15091.1.4" phases=1 conn=delta model=3 kv=0.22 kw = 341.406154313587 pf=0.92 status=variable vmaxpu=1.5 vminpu=0.93 daily="RES_2_DU"
 
New "Load.BT_6653_M1" bus1="UC11683.2.4" phases=1 conn=delta model=2 kv=0.22 kw = 455.20820575144944 pf=0.92 status=variable vmaxpu=1.5 vminpu=0.93 daily="RES_2_DU" 
New "Load.BT_6653_M2" bus1="UC11683.2.4" phases=1 conn=delta model=3 kv=0.22 kw = 455.20820575144944 pf=0.92 status=variable vmaxpu=1.5 vminpu=0.93 daily="RES_2_DU"
 
New "Load.BT_6786_M1" bus1="UC9221.1.4" phases=1 conn=delta model=2 kv=0.22 kw = 1098.4371921393672 pf=0.92 status=variable vmaxpu=1.5 vminpu=0.93 daily="RES_2_DU" 
New "Load.BT_6786_M2" bus1="UC9221.1.4" phases=1 conn=delta model=3 kv=0.22 kw = 1098.4371921393672 pf=0.92 status=variable vmaxpu=1.5 vminpu=0.93 daily="RES_2_DU"
 
New "Load.BT_7897_M1" bus1="UC3241.3.4" phases=1 conn=delta model=2 kv=0.22 kw = 307.00349971174813 pf=0.92 status=variable vmaxpu=1.5 vminpu=0.93 daily="COM_1_DU" 
New "Load.BT_7897_M2" bus1="UC3241.3.4" phases=1 conn=delta model=3 kv=0.22 kw = 307.00349971174813 pf=0.92 status=variable vmaxpu=1.5 vminpu=0.93 daily="COM_1_DU"
 
New "Load.BT_6905_M1" bus1="UC15112.3.4" phases=1 conn=delta model=2 kv=0.22 kw = 778.8059492009628 pf=0.92 status=variable vmaxpu=1.5 vminpu=0.93 daily="RES_1_DU" 
New "Load.BT_6905_M2" bus1="UC15112.3.4" phases=1 conn=delta model=3 kv=0.22 kw = 778.8059492009628 pf=0.92 status=variable vmaxpu=1.5 vminpu=0.93 daily="RES_1_DU"
 
New "Load.BT_7836_M1" bus1="UC16108.3.4" phases=1 conn=delta model=2 kv=0.22 kw = 0.0 pf=0.92 status=variable vmaxpu=1.5 vminpu=0.93 daily="RES_7_DU" 
New "Load.BT_7836_M2" bus1="UC16108.3.4" phases=1 conn=delta model=3 kv=0.22 kw = 0.0 pf=0.92 status=variable vmaxpu=1.5 vminpu=0.93 daily="RES_7_DU"
 
New "Load.BT_2994_M1" bus1="UC20129.3.4" phases=1 conn=delta model=2 kv=0.22 kw = 0.0 pf=0.92 status=variable vmaxpu=1.5 vminpu=0.93 daily="RES_7_DU" 
New "Load.BT_2994_M2" bus1="UC20129.3.4" phases=1 conn=delta model=3 kv=0.22 kw = 0.0 pf=0.92 status=variable vmaxpu=1.5 vminpu=0.93 daily="RES_7_DU"
 
New "Load.BT_2600_M1" bus1="UC16111.2.4" phases=1 conn=delta model=2 kv=0.22 kw = 0.0 pf=0.92 status=variable vmaxpu=1.5 vminpu=0.93 daily="RES_7_DU" 
New "Load.BT_2600_M2" bus1="UC16111.2.4" phases=1 conn=delta model=3 kv=0.22 kw = 0.0 pf=0.92 status=variable vmaxpu=1.5 vminpu=0.93 daily="RES_7_DU"
 
New "Load.BT_8384_M1" bus1="UC3883.1.4" phases=1 conn=delta model=2 kv=0.22 kw = 0.0 pf=0.92 status=variable vmaxpu=1.5 vminpu=0.93 daily="COM_5_DU" 
New "Load.BT_8384_M2" bus1="UC3883.1.4" phases=1 conn=delta model=3 kv=0.22 kw = 0.0 pf=0.92 status=variable vmaxpu=1.5 vminpu=0.93 daily="COM_5_DU"
 
New "Load.BT_8384_M1" bus1="UC3883.2.4" phases=1 conn=delta model=2 kv=0.22 kw = 0.0 pf=0.92 status=variable vmaxpu=1.5 vminpu=0.93 daily="COM_5_DU" 
New "Load.BT_8384_M2" bus1="UC3883.2.4" phases=1 conn=delta model=3 kv=0.22 kw = 0.0 pf=0.92 status=variable vmaxpu=1.5 vminpu=0.93 daily="COM_5_DU"
 
New "Load.BT_2055_M1" bus1="UC4114.1.4" phases=1 conn=delta model=2 kv=0.22 kw = 0.0 pf=0.92 status=variable vmaxpu=1.5 vminpu=0.93 daily="RES_7_DU" 
New "Load.BT_2055_M2" bus1="UC4114.1.4" phases=1 conn=delta model=3 kv=0.22 kw = 0.0 pf=0.92 status=variable vmaxpu=1.5 vminpu=0.93 daily="RES_7_DU"
 
New "Load.BT_1547_M1" bus1="UC14453.3.4" phases=1 conn=delta model=2 kv=0.22 kw = 0.0 pf=0.92 status=variable vmaxpu=1.5 vminpu=0.93 daily="RES_7_DU" 
New "Load.BT_1547_M2" bus1="UC14453.3.4" phases=1 conn=delta model=3 kv=0.22 kw = 0.0 pf=0.92 status=variable vmaxpu=1.5 vminpu=0.93 daily="RES_7_DU"
 
New "Load.BT_7858_M1" bus1="UC16118.2.4" phases=1 conn=delta model=2 kv=0.22 kw = 0.0 pf=0.92 status=variable vmaxpu=1.5 vminpu=0.93 daily="RES_7_DU" 
New "Load.BT_7858_M2" bus1="UC16118.2.4" phases=1 conn=delta model=3 kv=0.22 kw = 0.0 pf=0.92 status=variable vmaxpu=1.5 vminpu=0.93 daily="RES_7_DU"
 
New "Load.BT_2598_M1" bus1="UC15828.2.4" phases=1 conn=delta model=2 kv=0.22 kw = 34.63540695934941 pf=0.92 status=variable vmaxpu=1.5 vminpu=0.93 daily="RES_2_DU" 
New "Load.BT_2598_M2" bus1="UC15828.2.4" phases=1 conn=delta model=3 kv=0.22 kw = 34.63540695934941 pf=0.92 status=variable vmaxpu=1.5 vminpu=0.93 daily="RES_2_DU"
 
New "Load.BT_1076_M1" bus1="UC5746.1.4" phases=1 conn=delta model=2 kv=0.22 kw = 80.93511852990633 pf=0.92 status=variable vmaxpu=1.5 vminpu=0.93 daily="RES_5_DU" 
New "Load.BT_1076_M2" bus1="UC5746.1.4" phases=1 conn=delta model=3 kv=0.22 kw = 80.93511852990633 pf=0.92 status=variable vmaxpu=1.5 vminpu=0.93 daily="RES_5_DU"
 
New "Load.BT_1224_M1" bus1="UC797.2.4" phases=1 conn=delta model=2 kv=0.22 kw = 581.4759333078312 pf=0.92 status=variable vmaxpu=1.5 vminpu=0.93 daily="RES_3_DU" 
New "Load.BT_1224_M2" bus1="UC797.2.4" phases=1 conn=delta model=3 kv=0.22 kw = 581.4759333078312 pf=0.92 status=variable vmaxpu=1.5 vminpu=0.93 daily="RES_3_DU"
 
New "Load.BT_2144_M1" bus1="UC20086.1.4" phases=1 conn=delta model=2 kv=0.22 kw = 999.4788865412257 pf=0.92 status=variable vmaxpu=1.5 vminpu=0.93 daily="RES_2_DU" 
New "Load.BT_2144_M2" bus1="UC20086.1.4" phases=1 conn=delta model=3 kv=0.22 kw = 999.4788865412257 pf=0.92 status=variable vmaxpu=1.5 vminpu=0.93 daily="RES_2_DU"
 
New "Load.BT_618_M1" bus1="UC15794.3.1.4" phases=2 conn=delta model=2 kv=0.38 kw = 64.32289863879176 pf=0.92 status=variable vmaxpu=1.5 vminpu=0.93 daily="RES_2_DU" 
New "Load.BT_618_M2" bus1="UC15794.3.1.4" phases=2 conn=delta model=3 kv=0.38 kw = 64.32289863879176 pf=0.92 status=variable vmaxpu=1.5 vminpu=0.93 daily="RES_2_DU"
 
New "Load.BT_7606_M1" bus1="UC11739.3.4" phases=1 conn=delta model=2 kv=0.22 kw = 692.7081391869882 pf=0.92 status=variable vmaxpu=1.5 vminpu=0.93 daily="RES_2_DU" 
New "Load.BT_7606_M2" bus1="UC11739.3.4" phases=1 conn=delta model=3 kv=0.22 kw = 692.7081391869882 pf=0.92 status=variable vmaxpu=1.5 vminpu=0.93 daily="RES_2_DU"
 
New "Load.BT_6647_M1" bus1="UC9436.1.4" phases=1 conn=delta model=2 kv=0.22 kw = 534.3748502299624 pf=0.92 status=variable vmaxpu=1.5 vminpu=0.93 daily="RES_2_DU" 
New "Load.BT_6647_M2" bus1="UC9436.1.4" phases=1 conn=delta model=3 kv=0.22 kw = 534.3748502299624 pf=0.92 status=variable vmaxpu=1.5 vminpu=0.93 daily="RES_2_DU"
 
New "Load.BT_1485_M1" bus1="UC15792.1.2.3.4" phases=3 conn=delta model=2 kv=0.38 kw = 9.895830559814117 pf=0.92 status=variable vmaxpu=1.5 vminpu=0.93 daily="RES_2_DU" 
New "Load.BT_1485_M2" bus1="UC15792.1.2.3.4" phases=3 conn=delta model=3 kv=0.38 kw = 9.895830559814117 pf=0.92 status=variable vmaxpu=1.5 vminpu=0.93 daily="RES_2_DU"
 
New "Load.BT_6503_M1" bus1="UC15476.1.4" phases=1 conn=delta model=2 kv=0.22 kw = 1504.1662450917459 pf=0.92 status=variable vmaxpu=1.5 vminpu=0.93 daily="RES_2_DU" 
New "Load.BT_6503_M2" bus1="UC15476.1.4" phases=1 conn=delta model=3 kv=0.22 kw = 1504.1662450917459 pf=0.92 status=variable vmaxpu=1.5 vminpu=0.93 daily="RES_2_DU"
 
New "Load.BT_7350_M1" bus1="UC20128.1.4" phases=1 conn=delta model=2 kv=0.22 kw = 0.0 pf=0.92 status=variable vmaxpu=1.5 vminpu=0.93 daily="RES_3_DU" 
New "Load.BT_7350_M2" bus1="UC20128.1.4" phases=1 conn=delta model=3 kv=0.22 kw = 0.0 pf=0.92 status=variable vmaxpu=1.5 vminpu=0.93 daily="RES_3_DU"
 
New "Load.BT_7853_M1" bus1="UC16098.2.3.4" phases=2 conn=delta model=2 kv=0.38 kw = 0.0 pf=0.92 status=variable vmaxpu=1.5 vminpu=0.93 daily="RES_7_DU" 
New "Load.BT_7853_M2" bus1="UC16098.2.3.4" phases=2 conn=delta model=3 kv=0.38 kw = 0.0 pf=0.92 status=variable vmaxpu=1.5 vminpu=0.93 daily="RES_7_DU"
 
New "Load.BT_2823_M1" bus1="UC4516.3.1.4" phases=2 conn=delta model=2 kv=0.38 kw = 0.0 pf=0.92 status=variable vmaxpu=1.5 vminpu=0.93 daily="RES_3_DU" 
New "Load.BT_2823_M2" bus1="UC4516.3.1.4" phases=2 conn=delta model=3 kv=0.38 kw = 0.0 pf=0.92 status=variable vmaxpu=1.5 vminpu=0.93 daily="RES_3_DU"
 
New "Load.BT_1088_M1" bus1="UC5634.3.4" phases=1 conn=delta model=2 kv=0.22 kw = 0.0 pf=0.92 status=variable vmaxpu=1.5 vminpu=0.93 daily="RES_3_DU" 
New "Load.BT_1088_M2" bus1="UC5634.3.4" phases=1 conn=delta model=3 kv=0.22 kw = 0.0 pf=0.92 status=variable vmaxpu=1.5 vminpu=0.93 daily="RES_3_DU"
 
New "Load.BT_6907_M1" bus1="UC10830.1.4" phases=1 conn=delta model=2 kv=0.22 kw = 0.0 pf=0.92 status=variable vmaxpu=1.5 vminpu=0.93 daily="RES_7_DU" 
New "Load.BT_6907_M2" bus1="UC10830.1.4" phases=1 conn=delta model=3 kv=0.22 kw = 0.0 pf=0.92 status=variable vmaxpu=1.5 vminpu=0.93 daily="RES_7_DU"
 
New "Load.BT_2519_M1" bus1="UC15768.1.4" phases=1 conn=delta model=2 kv=0.22 kw = 0.0 pf=0.92 status=variable vmaxpu=1.5 vminpu=0.93 daily="RES_2_DU" 
New "Load.BT_2519_M2" bus1="UC15768.1.4" phases=1 conn=delta model=3 kv=0.22 kw = 0.0 pf=0.92 status=variable vmaxpu=1.5 vminpu=0.93 daily="RES_2_DU"
 
New "Load.BT_7950_M1" bus1="UC15770.1.2.4" phases=2 conn=delta model=2 kv=0.38 kw = 59.3749833588847 pf=0.92 status=variable vmaxpu=1.5 vminpu=0.93 daily="RES_2_DU" 
New "Load.BT_7950_M2" bus1="UC15770.1.2.4" phases=2 conn=delta model=3 kv=0.38 kw = 59.3749833588847 pf=0.92 status=variable vmaxpu=1.5 vminpu=0.93 daily="RES_2_DU"
 
New "Load.BT_7736_M1" bus1="UC20080.1.2.4" phases=2 conn=delta model=2 kv=0.38 kw = 321.6144931939588 pf=0.92 status=variable vmaxpu=1.5 vminpu=0.93 daily="RES_2_DU" 
New "Load.BT_7736_M2" bus1="UC20080.1.2.4" phases=2 conn=delta model=3 kv=0.38 kw = 321.6144931939588 pf=0.92 status=variable vmaxpu=1.5 vminpu=0.93 daily="RES_2_DU"
 
New "Load.BT_7736_M1" bus1="UC20078.2.3.4" phases=2 conn=delta model=2 kv=0.38 kw = 49.47915279907059 pf=0.92 status=variable vmaxpu=1.5 vminpu=0.93 daily="RES_2_DU" 
New "Load.BT_7736_M2" bus1="UC20078.2.3.4" phases=2 conn=delta model=3 kv=0.38 kw = 49.47915279907059 pf=0.92 status=variable vmaxpu=1.5 vminpu=0.93 daily="RES_2_DU"
 
New "Load.BT_7736_M1" bus1="UC20079.2.3.4" phases=2 conn=delta model=2 kv=0.38 kw = 262.2395098350741 pf=0.92 status=variable vmaxpu=1.5 vminpu=0.93 daily="RES_2_DU" 
New "Load.BT_7736_M2" bus1="UC20079.2.3.4" phases=2 conn=delta model=3 kv=0.38 kw = 262.2395098350741 pf=0.92 status=variable vmaxpu=1.5 vminpu=0.93 daily="RES_2_DU"
 
New "Load.BT_2553_M1" bus1="UC20081.3.4" phases=1 conn=delta model=2 kv=0.22 kw = 4.5411966153492145 pf=0.92 status=variable vmaxpu=1.5 vminpu=0.93 daily="RES_6_DU" 
New "Load.BT_2553_M2" bus1="UC20081.3.4" phases=1 conn=delta model=3 kv=0.22 kw = 4.5411966153492145 pf=0.92 status=variable vmaxpu=1.5 vminpu=0.93 daily="RES_6_DU"
 
New "Load.BT_1328_M1" bus1="UC960.3.4" phases=1 conn=delta model=2 kv=0.22 kw = 267.1874251149812 pf=0.92 status=variable vmaxpu=1.5 vminpu=0.93 daily="RES_2_DU" 
New "Load.BT_1328_M2" bus1="UC960.3.4" phases=1 conn=delta model=3 kv=0.22 kw = 267.1874251149812 pf=0.92 status=variable vmaxpu=1.5 vminpu=0.93 daily="RES_2_DU"
 
New "Load.BT_1280_M1" bus1="UC7780.1.4" phases=1 conn=delta model=2 kv=0.22 kw = 1157.8121754982517 pf=0.92 status=variable vmaxpu=1.5 vminpu=0.93 daily="RES_2_DU" 
New "Load.BT_1280_M2" bus1="UC7780.1.4" phases=1 conn=delta model=3 kv=0.22 kw = 1157.8121754982517 pf=0.92 status=variable vmaxpu=1.5 vminpu=0.93 daily="RES_2_DU"
 
New "Load.BT_7756_M1" bus1="UC15778.1.2.3.4" phases=3 conn=delta model=2 kv=0.38 kw = 54.42706807897765 pf=0.92 status=variable vmaxpu=1.5 vminpu=0.93 daily="RES_2_DU" 
New "Load.BT_7756_M2" bus1="UC15778.1.2.3.4" phases=3 conn=delta model=3 kv=0.38 kw = 54.42706807897765 pf=0.92 status=variable vmaxpu=1.5 vminpu=0.93 daily="RES_2_DU"
 
New "Load.BT_7345_M1" bus1="UC4494.3.4" phases=1 conn=delta model=2 kv=0.22 kw = 999.4788865412257 pf=0.92 status=variable vmaxpu=1.5 vminpu=0.93 daily="RES_2_DU" 
New "Load.BT_7345_M2" bus1="UC4494.3.4" phases=1 conn=delta model=3 kv=0.22 kw = 999.4788865412257 pf=0.92 status=variable vmaxpu=1.5 vminpu=0.93 daily="RES_2_DU"
 
New "Load.BT_6677_M1" bus1="UC15444.3.4" phases=1 conn=delta model=2 kv=0.22 kw = 84.11455975842 pf=0.92 status=variable vmaxpu=1.5 vminpu=0.93 daily="RES_2_DU" 
New "Load.BT_6677_M2" bus1="UC15444.3.4" phases=1 conn=delta model=3 kv=0.22 kw = 84.11455975842 pf=0.92 status=variable vmaxpu=1.5 vminpu=0.93 daily="RES_2_DU"
 
New "Load.BT_2035_M1" bus1="UC20026.1.4" phases=1 conn=delta model=2 kv=0.22 kw = 834.8460259472442 pf=0.92 status=variable vmaxpu=1.5 vminpu=0.93 daily="RES_11_DU" 
New "Load.BT_2035_M2" bus1="UC20026.1.4" phases=1 conn=delta model=3 kv=0.22 kw = 834.8460259472442 pf=0.92 status=variable vmaxpu=1.5 vminpu=0.93 daily="RES_11_DU"
 
New "Load.BT_1901_M1" bus1="UC20027.2.3.4" phases=2 conn=delta model=2 kv=0.38 kw = 855.9893434239211 pf=0.92 status=variable vmaxpu=1.5 vminpu=0.93 daily="RES_2_DU" 
New "Load.BT_1901_M2" bus1="UC20027.2.3.4" phases=2 conn=delta model=3 kv=0.38 kw = 855.9893434239211 pf=0.92 status=variable vmaxpu=1.5 vminpu=0.93 daily="RES_2_DU"
 
New "Load.BT_7814_M1" bus1="UC16067.3.4" phases=1 conn=delta model=2 kv=0.22 kw = 0.0 pf=0.92 status=variable vmaxpu=1.5 vminpu=0.93 daily="RES_7_DU" 
New "Load.BT_7814_M2" bus1="UC16067.3.4" phases=1 conn=delta model=3 kv=0.22 kw = 0.0 pf=0.92 status=variable vmaxpu=1.5 vminpu=0.93 daily="RES_7_DU"
 
New "Load.BT_1799_M1" bus1="UC6060.1.4" phases=1 conn=delta model=2 kv=0.22 kw = 0.0 pf=0.92 status=variable vmaxpu=1.5 vminpu=0.93 daily="RES_3_DU" 
New "Load.BT_1799_M2" bus1="UC6060.1.4" phases=1 conn=delta model=3 kv=0.22 kw = 0.0 pf=0.92 status=variable vmaxpu=1.5 vminpu=0.93 daily="RES_3_DU"
 
New "Load.BT_2049_M1" bus1="UC4838.1.2.4" phases=2 conn=delta model=2 kv=0.38 kw = 0.0 pf=0.92 status=variable vmaxpu=1.5 vminpu=0.93 daily="RES_3_DU" 
New "Load.BT_2049_M2" bus1="UC4838.1.2.4" phases=2 conn=delta model=3 kv=0.38 kw = 0.0 pf=0.92 status=variable vmaxpu=1.5 vminpu=0.93 daily="RES_3_DU"
 
New "Load.BT_6674_M1" bus1="UC14778.2.4" phases=1 conn=delta model=2 kv=0.22 kw = 0.0 pf=0.92 status=variable vmaxpu=1.5 vminpu=0.93 daily="RES_3_DU" 
New "Load.BT_6674_M2" bus1="UC14778.2.4" phases=1 conn=delta model=3 kv=0.22 kw = 0.0 pf=0.92 status=variable vmaxpu=1.5 vminpu=0.93 daily="RES_3_DU"
 
New "Load.BT_3082_M1" bus1="UC3698.2.4" phases=1 conn=delta model=2 kv=0.22 kw = 0.0 pf=0.92 status=variable vmaxpu=1.5 vminpu=0.93 daily="RES_3_DU" 
New "Load.BT_3082_M2" bus1="UC3698.2.4" phases=1 conn=delta model=3 kv=0.22 kw = 0.0 pf=0.92 status=variable vmaxpu=1.5 vminpu=0.93 daily="RES_3_DU"
 
New "Load.BT_2055_M1" bus1="UC4114.3.4" phases=1 conn=delta model=2 kv=0.22 kw = 0.0 pf=0.92 status=variable vmaxpu=1.5 vminpu=0.93 daily="RES_3_DU" 
New "Load.BT_2055_M2" bus1="UC4114.3.4" phases=1 conn=delta model=3 kv=0.22 kw = 0.0 pf=0.92 status=variable vmaxpu=1.5 vminpu=0.93 daily="RES_3_DU"
 
New "Load.BT_1061_M1" bus1="UC16077.3.4" phases=1 conn=delta model=2 kv=0.22 kw = 0.0 pf=0.92 status=variable vmaxpu=1.5 vminpu=0.93 daily="RES_3_DU" 
New "Load.BT_1061_M2" bus1="UC16077.3.4" phases=1 conn=delta model=3 kv=0.22 kw = 0.0 pf=0.92 status=variable vmaxpu=1.5 vminpu=0.93 daily="RES_3_DU"
 
New "Load.BT_7970_M1" bus1="UC15759.2.3.4" phases=2 conn=delta model=2 kv=0.38 kw = 108.8541361579553 pf=0.92 status=variable vmaxpu=1.5 vminpu=0.93 daily="RES_2_DU" 
New "Load.BT_7970_M2" bus1="UC15759.2.3.4" phases=2 conn=delta model=3 kv=0.38 kw = 108.8541361579553 pf=0.92 status=variable vmaxpu=1.5 vminpu=0.93 daily="RES_2_DU"
 
New "Load.BT_7948_M1" bus1="UC15766.1.2.3.4" phases=3 conn=delta model=2 kv=0.38 kw = 583.8540030290329 pf=0.92 status=variable vmaxpu=1.5 vminpu=0.93 daily="RES_2_DU" 
New "Load.BT_7948_M2" bus1="UC15766.1.2.3.4" phases=3 conn=delta model=3 kv=0.38 kw = 583.8540030290329 pf=0.92 status=variable vmaxpu=1.5 vminpu=0.93 daily="RES_2_DU"
 
New "Load.BT_8518_M1" bus1="UC20077.3.4" phases=1 conn=delta model=2 kv=0.22 kw = 54.42706807897765 pf=0.92 status=variable vmaxpu=1.5 vminpu=0.93 daily="RES_2_DU" 
New "Load.BT_8518_M2" bus1="UC20077.3.4" phases=1 conn=delta model=3 kv=0.22 kw = 54.42706807897765 pf=0.92 status=variable vmaxpu=1.5 vminpu=0.93 daily="RES_2_DU"
 
New "Load.BT_7756_M1" bus1="UC15767.3.4" phases=1 conn=delta model=2 kv=0.22 kw = 74.21872919860589 pf=0.92 status=variable vmaxpu=1.5 vminpu=0.93 daily="RES_2_DU" 
New "Load.BT_7756_M2" bus1="UC15767.3.4" phases=1 conn=delta model=3 kv=0.22 kw = 74.21872919860589 pf=0.92 status=variable vmaxpu=1.5 vminpu=0.93 daily="RES_2_DU"
 
New "Load.BT_7790_M1" bus1="UC15434.3.4" phases=1 conn=delta model=2 kv=0.22 kw = 776.8226989454082 pf=0.92 status=variable vmaxpu=1.5 vminpu=0.93 daily="RES_2_DU" 
New "Load.BT_7790_M2" bus1="UC15434.3.4" phases=1 conn=delta model=3 kv=0.22 kw = 776.8226989454082 pf=0.92 status=variable vmaxpu=1.5 vminpu=0.93 daily="RES_2_DU"
 
New "Load.BT_2544_M1" bus1="UC4853.1.2.4" phases=2 conn=delta model=2 kv=0.38 kw = 321.6144931939588 pf=0.92 status=variable vmaxpu=1.5 vminpu=0.93 daily="RES_2_DU" 
New "Load.BT_2544_M2" bus1="UC4853.1.2.4" phases=2 conn=delta model=3 kv=0.38 kw = 321.6144931939588 pf=0.92 status=variable vmaxpu=1.5 vminpu=0.93 daily="RES_2_DU"
 
New "Load.BT_7743_M1" bus1="UC10804.1.4" phases=1 conn=delta model=2 kv=0.22 kw = 932.4479391793841 pf=0.92 status=variable vmaxpu=1.5 vminpu=0.93 daily="RES_1_DU" 
New "Load.BT_7743_M2" bus1="UC10804.1.4" phases=1 conn=delta model=3 kv=0.22 kw = 932.4479391793841 pf=0.92 status=variable vmaxpu=1.5 vminpu=0.93 daily="RES_1_DU"
 
New "Load.BT_7817_M1" bus1="UC15439.2.4" phases=1 conn=delta model=2 kv=0.22 kw = 1118.588288402314 pf=0.92 status=variable vmaxpu=1.5 vminpu=0.93 daily="RES_8_DU" 
New "Load.BT_7817_M2" bus1="UC15439.2.4" phases=1 conn=delta model=3 kv=0.22 kw = 1118.588288402314 pf=0.92 status=variable vmaxpu=1.5 vminpu=0.93 daily="RES_8_DU"
 
New "Load.BT_2147_M1" bus1="UC20024.3.1.4" phases=2 conn=delta model=2 kv=0.38 kw = 108.8541361579553 pf=0.92 status=variable vmaxpu=1.5 vminpu=0.93 daily="RES_2_DU" 
New "Load.BT_2147_M2" bus1="UC20024.3.1.4" phases=2 conn=delta model=3 kv=0.38 kw = 108.8541361579553 pf=0.92 status=variable vmaxpu=1.5 vminpu=0.93 daily="RES_2_DU"
 
New "Load.BT_7463_M1" bus1="UC4971.2.3.4" phases=2 conn=delta model=2 kv=0.38 kw = 1197.3479219008 pf=0.92 status=variable vmaxpu=1.5 vminpu=0.93 daily="RES_1_DU" 
New "Load.BT_7463_M2" bus1="UC4971.2.3.4" phases=2 conn=delta model=3 kv=0.38 kw = 1197.3479219008 pf=0.92 status=variable vmaxpu=1.5 vminpu=0.93 daily="RES_1_DU"
 
New "Load.BT_1561_M1" bus1="UC14577.2.4" phases=1 conn=delta model=2 kv=0.22 kw = 638.2810711080106 pf=0.92 status=variable vmaxpu=1.5 vminpu=0.93 daily="RES_2_DU" 
New "Load.BT_1561_M2" bus1="UC14577.2.4" phases=1 conn=delta model=3 kv=0.22 kw = 638.2810711080106 pf=0.92 status=variable vmaxpu=1.5 vminpu=0.93 daily="RES_2_DU"
 
New "Load.BT_2266_M1" bus1="UC4027.3.4" phases=1 conn=delta model=2 kv=0.22 kw = 153.50174985587407 pf=0.92 status=variable vmaxpu=1.5 vminpu=0.93 daily="COM_1_DU" 
New "Load.BT_2266_M2" bus1="UC4027.3.4" phases=1 conn=delta model=3 kv=0.22 kw = 153.50174985587407 pf=0.92 status=variable vmaxpu=1.5 vminpu=0.93 daily="COM_1_DU"
 
New "Load.BT_8289_M1" bus1="UC20019.1.4" phases=1 conn=delta model=2 kv=0.22 kw = 603.6456641486611 pf=0.92 status=variable vmaxpu=1.5 vminpu=0.93 daily="RES_2_DU" 
New "Load.BT_8289_M2" bus1="UC20019.1.4" phases=1 conn=delta model=3 kv=0.22 kw = 603.6456641486611 pf=0.92 status=variable vmaxpu=1.5 vminpu=0.93 daily="RES_2_DU"
 
New "Load.BT_3070_M1" bus1="UC20020.1.2.4" phases=2 conn=delta model=2 kv=0.38 kw = 890.6247503832706 pf=0.92 status=variable vmaxpu=1.5 vminpu=0.93 daily="RES_2_DU" 
New "Load.BT_3070_M2" bus1="UC20020.1.2.4" phases=2 conn=delta model=3 kv=0.38 kw = 890.6247503832706 pf=0.92 status=variable vmaxpu=1.5 vminpu=0.93 daily="RES_2_DU"
 
New "Load.BT_8375_M1" bus1="UC4987.3.1.4" phases=2 conn=delta model=2 kv=0.38 kw = 470.05195159117056 pf=0.92 status=variable vmaxpu=1.5 vminpu=0.93 daily="RES_2_DU" 
New "Load.BT_8375_M2" bus1="UC4987.3.1.4" phases=2 conn=delta model=3 kv=0.38 kw = 470.05195159117056 pf=0.92 status=variable vmaxpu=1.5 vminpu=0.93 daily="RES_2_DU"
 
New "Load.BT_7746_M1" bus1="UC14588.1.4" phases=1 conn=delta model=2 kv=0.22 kw = 376.04156127293646 pf=0.92 status=variable vmaxpu=1.5 vminpu=0.93 daily="RES_2_DU" 
New "Load.BT_7746_M2" bus1="UC14588.1.4" phases=1 conn=delta model=3 kv=0.22 kw = 376.04156127293646 pf=0.92 status=variable vmaxpu=1.5 vminpu=0.93 daily="RES_2_DU"
 
New "Load.BT_7000_M1" bus1="UC15426.1.4" phases=1 conn=delta model=2 kv=0.22 kw = 870.8330892636424 pf=0.92 status=variable vmaxpu=1.5 vminpu=0.93 daily="RES_2_DU" 
New "Load.BT_7000_M2" bus1="UC15426.1.4" phases=1 conn=delta model=3 kv=0.22 kw = 870.8330892636424 pf=0.92 status=variable vmaxpu=1.5 vminpu=0.93 daily="RES_2_DU"
 
New "Load.BT_874_M1" bus1="UC12653.1.4" phases=1 conn=delta model=2 kv=0.22 kw = 3903.234175443033 pf=0.92 status=variable vmaxpu=1.5 vminpu=0.93 daily="COM_5_DU" 
New "Load.BT_874_M2" bus1="UC12653.1.4" phases=1 conn=delta model=3 kv=0.22 kw = 3903.234175443033 pf=0.92 status=variable vmaxpu=1.5 vminpu=0.93 daily="COM_5_DU"
 
New "Load.BT_7960_M1" bus1="UC15423.1.2.3.4" phases=3 conn=delta model=2 kv=0.38 kw = 332.0309589273798 pf=0.92 status=variable vmaxpu=1.5 vminpu=0.93 daily="COM_1_DU" 
New "Load.BT_7960_M2" bus1="UC15423.1.2.3.4" phases=3 conn=delta model=3 kv=0.38 kw = 332.0309589273798 pf=0.92 status=variable vmaxpu=1.5 vminpu=0.93 daily="COM_1_DU"
 
New "Load.BT_61_M1" bus1="UC16056.1.4" phases=1 conn=delta model=2 kv=0.22 kw = 0.0 pf=0.92 status=variable vmaxpu=1.5 vminpu=0.93 daily="RES_7_DU" 
New "Load.BT_61_M2" bus1="UC16056.1.4" phases=1 conn=delta model=3 kv=0.22 kw = 0.0 pf=0.92 status=variable vmaxpu=1.5 vminpu=0.93 daily="RES_7_DU"
 
New "Load.BT_8301_M1" bus1="UC20120.1.2.4" phases=2 conn=delta model=2 kv=0.38 kw = 0.0 pf=0.92 status=variable vmaxpu=1.5 vminpu=0.93 daily="RES_3_DU" 
New "Load.BT_8301_M2" bus1="UC20120.1.2.4" phases=2 conn=delta model=3 kv=0.38 kw = 0.0 pf=0.92 status=variable vmaxpu=1.5 vminpu=0.93 daily="RES_3_DU"
 
New "Load.BT_7633_M1" bus1="UC20123.2.4" phases=1 conn=delta model=2 kv=0.22 kw = 0.0 pf=0.92 status=variable vmaxpu=1.5 vminpu=0.93 daily="RES_3_DU" 
New "Load.BT_7633_M2" bus1="UC20123.2.4" phases=1 conn=delta model=3 kv=0.22 kw = 0.0 pf=0.92 status=variable vmaxpu=1.5 vminpu=0.93 daily="RES_3_DU"
 
New "Load.BT_2683_M1" bus1="UC20122.3.4" phases=1 conn=delta model=2 kv=0.22 kw = 0.0 pf=0.92 status=variable vmaxpu=1.5 vminpu=0.93 daily="RES_7_DU" 
New "Load.BT_2683_M2" bus1="UC20122.3.4" phases=1 conn=delta model=3 kv=0.22 kw = 0.0 pf=0.92 status=variable vmaxpu=1.5 vminpu=0.93 daily="RES_7_DU"
 
New "Load.BT_8675_M1" bus1="UC16051.1.4" phases=1 conn=delta model=2 kv=0.22 kw = 0.0 pf=0.92 status=variable vmaxpu=1.5 vminpu=0.93 daily="COM_5_DU" 
New "Load.BT_8675_M2" bus1="UC16051.1.4" phases=1 conn=delta model=3 kv=0.22 kw = 0.0 pf=0.92 status=variable vmaxpu=1.5 vminpu=0.93 daily="COM_5_DU"
 
New "Load.BT_6508_M1" bus1="UC16063.2.4" phases=1 conn=delta model=2 kv=0.22 kw = 0.0 pf=0.92 status=variable vmaxpu=1.5 vminpu=0.93 daily="RES_3_DU" 
New "Load.BT_6508_M2" bus1="UC16063.2.4" phases=1 conn=delta model=3 kv=0.22 kw = 0.0 pf=0.92 status=variable vmaxpu=1.5 vminpu=0.93 daily="RES_3_DU"
 
New "Load.BT_7819_M1" bus1="UC16066.2.4" phases=1 conn=delta model=2 kv=0.22 kw = 0.0 pf=0.92 status=variable vmaxpu=1.5 vminpu=0.93 daily="RES_7_DU" 
New "Load.BT_7819_M2" bus1="UC16066.2.4" phases=1 conn=delta model=3 kv=0.22 kw = 0.0 pf=0.92 status=variable vmaxpu=1.5 vminpu=0.93 daily="RES_7_DU"
 
New "Load.BT_835_M1" bus1="UC16065.3.4" phases=1 conn=delta model=2 kv=0.22 kw = 0.0 pf=0.92 status=variable vmaxpu=1.5 vminpu=0.93 daily="RES_3_DU" 
New "Load.BT_835_M2" bus1="UC16065.3.4" phases=1 conn=delta model=3 kv=0.22 kw = 0.0 pf=0.92 status=variable vmaxpu=1.5 vminpu=0.93 daily="RES_3_DU"
 
New "Load.BT_8015_M1" bus1="UC20075.1.2.3.4" phases=3 conn=delta model=2 kv=0.38 kw = 84.11455975842 pf=0.92 status=variable vmaxpu=1.5 vminpu=0.93 daily="RES_2_DU" 
New "Load.BT_8015_M2" bus1="UC20075.1.2.3.4" phases=3 conn=delta model=3 kv=0.38 kw = 84.11455975842 pf=0.92 status=variable vmaxpu=1.5 vminpu=0.93 daily="RES_2_DU"
 
New "Load.BT_71_M1" bus1="UC2604.2.4" phases=1 conn=delta model=2 kv=0.22 kw = 0.0 pf=0.92 status=variable vmaxpu=1.5 vminpu=0.93 daily="RES_2_DU" 
New "Load.BT_71_M2" bus1="UC2604.2.4" phases=1 conn=delta model=3 kv=0.22 kw = 0.0 pf=0.92 status=variable vmaxpu=1.5 vminpu=0.93 daily="RES_2_DU"
 
New "Load.BT_8314_M1" bus1="UC15743.1.2.3.4" phases=3 conn=delta model=2 kv=0.38 kw = 30.032951058757973 pf=0.92 status=variable vmaxpu=1.5 vminpu=0.93 daily="COM_1_DU" 
New "Load.BT_8314_M2" bus1="UC15743.1.2.3.4" phases=3 conn=delta model=3 kv=0.38 kw = 30.032951058757973 pf=0.92 status=variable vmaxpu=1.5 vminpu=0.93 daily="COM_1_DU"
 
New "Load.BT_814_M1" bus1="UC20076.1.4" phases=1 conn=delta model=2 kv=0.22 kw = 217.7082723159106 pf=0.92 status=variable vmaxpu=1.5 vminpu=0.93 daily="RES_2_DU" 
New "Load.BT_814_M2" bus1="UC20076.1.4" phases=1 conn=delta model=3 kv=0.22 kw = 217.7082723159106 pf=0.92 status=variable vmaxpu=1.5 vminpu=0.93 daily="RES_2_DU"
 
New "Load.BT_8070_M1" bus1="UC20074.2.3.4" phases=2 conn=delta model=2 kv=0.38 kw = 1133.0725990987164 pf=0.92 status=variable vmaxpu=1.5 vminpu=0.93 daily="RES_2_DU" 
New "Load.BT_8070_M2" bus1="UC20074.2.3.4" phases=2 conn=delta model=3 kv=0.38 kw = 1133.0725990987164 pf=0.92 status=variable vmaxpu=1.5 vminpu=0.93 daily="RES_2_DU"
 
New "Load.BT_2848_M1" bus1="UC6699.2.4" phases=1 conn=delta model=2 kv=0.22 kw = 1632.8120423693294 pf=0.92 status=variable vmaxpu=1.5 vminpu=0.93 daily="RES_2_DU" 
New "Load.BT_2848_M2" bus1="UC6699.2.4" phases=1 conn=delta model=3 kv=0.22 kw = 1632.8120423693294 pf=0.92 status=variable vmaxpu=1.5 vminpu=0.93 daily="RES_2_DU"
 
New "Load.BT_1090_M1" bus1="UC15410.1.2.3.4" phases=3 conn=delta model=2 kv=0.38 kw = 223.57863565964269 pf=0.92 status=variable vmaxpu=1.5 vminpu=0.93 daily="COM_1_DU" 
New "Load.BT_1090_M2" bus1="UC15410.1.2.3.4" phases=3 conn=delta model=3 kv=0.38 kw = 223.57863565964269 pf=0.92 status=variable vmaxpu=1.5 vminpu=0.93 daily="COM_1_DU"
 
New "Load.BT_1090_M1" bus1="UC15410.3.4" phases=1 conn=delta model=2 kv=0.22 kw = 4639.390769930908 pf=0.92 status=variable vmaxpu=1.5 vminpu=0.93 daily="RES_8_DU" 
New "Load.BT_1090_M2" bus1="UC15410.3.4" phases=1 conn=delta model=3 kv=0.22 kw = 4639.390769930908 pf=0.92 status=variable vmaxpu=1.5 vminpu=0.93 daily="RES_8_DU"
 
New "Load.BT_7839_M1" bus1="UC15414.1.2.3.4" phases=3 conn=delta model=2 kv=0.38 kw = 14954.741129980428 pf=0.92 status=variable vmaxpu=1.5 vminpu=0.93 daily="COM_1_DU" 
New "Load.BT_7839_M2" bus1="UC15414.1.2.3.4" phases=3 conn=delta model=3 kv=0.38 kw = 14954.741129980428 pf=0.92 status=variable vmaxpu=1.5 vminpu=0.93 daily="COM_1_DU"
 
New "Load.BT_1339_M1" bus1="UC15420.2.3.4" phases=2 conn=delta model=2 kv=0.38 kw = 643.2289863879176 pf=0.92 status=variable vmaxpu=1.5 vminpu=0.93 daily="RES_2_DU" 
New "Load.BT_1339_M2" bus1="UC15420.2.3.4" phases=2 conn=delta model=3 kv=0.38 kw = 643.2289863879176 pf=0.92 status=variable vmaxpu=1.5 vminpu=0.93 daily="RES_2_DU"
 
New "Load.BT_7850_M1" bus1="UC13997.1.4" phases=1 conn=delta model=2 kv=0.22 kw = 698.04266634189 pf=0.92 status=variable vmaxpu=1.5 vminpu=0.93 daily="RES_13_DU" 
New "Load.BT_7850_M2" bus1="UC13997.1.4" phases=1 conn=delta model=3 kv=0.22 kw = 698.04266634189 pf=0.92 status=variable vmaxpu=1.5 vminpu=0.93 daily="RES_13_DU"
 
New "Load.BT_2647_M1" bus1="UC4659.1.2.3.4" phases=3 conn=delta model=2 kv=0.38 kw = 0.0 pf=0.92 status=variable vmaxpu=1.5 vminpu=0.93 daily="RES_3_DU" 
New "Load.BT_2647_M2" bus1="UC4659.1.2.3.4" phases=3 conn=delta model=3 kv=0.38 kw = 0.0 pf=0.92 status=variable vmaxpu=1.5 vminpu=0.93 daily="RES_3_DU"
 
New "Load.BT_3000_M1" bus1="UC3833.2.4" phases=1 conn=delta model=2 kv=0.22 kw = 0.0 pf=0.92 status=variable vmaxpu=1.5 vminpu=0.93 daily="COM_5_DU" 
New "Load.BT_3000_M2" bus1="UC3833.2.4" phases=1 conn=delta model=3 kv=0.22 kw = 0.0 pf=0.92 status=variable vmaxpu=1.5 vminpu=0.93 daily="COM_5_DU"
 
New "Load.BT_6968_M1" bus1="UC16049.1.4" phases=1 conn=delta model=2 kv=0.22 kw = 0.0 pf=0.92 status=variable vmaxpu=1.5 vminpu=0.93 daily="RES_7_DU" 
New "Load.BT_6968_M2" bus1="UC16049.1.4" phases=1 conn=delta model=3 kv=0.22 kw = 0.0 pf=0.92 status=variable vmaxpu=1.5 vminpu=0.93 daily="RES_7_DU"
 
New "Load.BT_8565_M1" bus1="UC20121.1.2.3.4" phases=3 conn=delta model=2 kv=0.38 kw = 0.0 pf=0.92 status=variable vmaxpu=1.5 vminpu=0.93 daily="RES_3_DU" 
New "Load.BT_8565_M2" bus1="UC20121.1.2.3.4" phases=3 conn=delta model=3 kv=0.38 kw = 0.0 pf=0.92 status=variable vmaxpu=1.5 vminpu=0.93 daily="RES_3_DU"
 
New "Load.BT_2851_M1" bus1="UC1952.2.4" phases=1 conn=delta model=2 kv=0.22 kw = 0.0 pf=0.92 status=variable vmaxpu=1.5 vminpu=0.93 daily="RES_3_DU" 
New "Load.BT_2851_M2" bus1="UC1952.2.4" phases=1 conn=delta model=3 kv=0.22 kw = 0.0 pf=0.92 status=variable vmaxpu=1.5 vminpu=0.93 daily="RES_3_DU"
 
New "Load.BT_1108_M1" bus1="UC16052.3.4" phases=1 conn=delta model=2 kv=0.22 kw = 0.0 pf=0.92 status=variable vmaxpu=1.5 vminpu=0.93 daily="RES_7_DU" 
New "Load.BT_1108_M2" bus1="UC16052.3.4" phases=1 conn=delta model=3 kv=0.22 kw = 0.0 pf=0.92 status=variable vmaxpu=1.5 vminpu=0.93 daily="RES_7_DU"
 
New "Load.BT_61_M1" bus1="UC16056.2.4" phases=1 conn=delta model=2 kv=0.22 kw = 0.0 pf=0.92 status=variable vmaxpu=1.5 vminpu=0.93 daily="RES_7_DU" 
New "Load.BT_61_M2" bus1="UC16056.2.4" phases=1 conn=delta model=3 kv=0.22 kw = 0.0 pf=0.92 status=variable vmaxpu=1.5 vminpu=0.93 daily="RES_7_DU"
 
New "Load.BT_7277_M1" bus1="UC16022.1.2.3.4" phases=3 conn=delta model=2 kv=0.38 kw = 0.0 pf=0.92 status=variable vmaxpu=1.5 vminpu=0.93 daily="RES_7_DU" 
New "Load.BT_7277_M2" bus1="UC16022.1.2.3.4" phases=3 conn=delta model=3 kv=0.38 kw = 0.0 pf=0.92 status=variable vmaxpu=1.5 vminpu=0.93 daily="RES_7_DU"
 
New "Load.BT_7621_M1" bus1="UC20113.1.4" phases=1 conn=delta model=2 kv=0.22 kw = 0.0 pf=0.92 status=variable vmaxpu=1.5 vminpu=0.93 daily="RES_3_DU" 
New "Load.BT_7621_M2" bus1="UC20113.1.4" phases=1 conn=delta model=3 kv=0.22 kw = 0.0 pf=0.92 status=variable vmaxpu=1.5 vminpu=0.93 daily="RES_3_DU"
 
New "Load.BT_7621_M1" bus1="UC20113.2.4" phases=1 conn=delta model=2 kv=0.22 kw = 0.0 pf=0.92 status=variable vmaxpu=1.5 vminpu=0.93 daily="RES_3_DU" 
New "Load.BT_7621_M2" bus1="UC20113.2.4" phases=1 conn=delta model=3 kv=0.22 kw = 0.0 pf=0.92 status=variable vmaxpu=1.5 vminpu=0.93 daily="RES_3_DU"
 
New "Load.BT_8077_M1" bus1="UC4766.2.3.4" phases=2 conn=delta model=2 kv=0.38 kw = 0.0 pf=0.92 status=variable vmaxpu=1.5 vminpu=0.93 daily="RES_3_DU" 
New "Load.BT_8077_M2" bus1="UC4766.2.3.4" phases=2 conn=delta model=3 kv=0.38 kw = 0.0 pf=0.92 status=variable vmaxpu=1.5 vminpu=0.93 daily="RES_3_DU"
 
New "Load.BT_8518_M1" bus1="UC20077.3.4" phases=1 conn=delta model=2 kv=0.22 kw = 0.0 pf=0.92 status=variable vmaxpu=1.5 vminpu=0.93 daily="RES_3_DU" 
New "Load.BT_8518_M2" bus1="UC20077.3.4" phases=1 conn=delta model=3 kv=0.22 kw = 0.0 pf=0.92 status=variable vmaxpu=1.5 vminpu=0.93 daily="RES_3_DU"
 
New "Load.BT_8518_M1" bus1="UC20077.2.4" phases=1 conn=delta model=2 kv=0.22 kw = 0.0 pf=0.92 status=variable vmaxpu=1.5 vminpu=0.93 daily="RES_7_DU" 
New "Load.BT_8518_M2" bus1="UC20077.2.4" phases=1 conn=delta model=3 kv=0.22 kw = 0.0 pf=0.92 status=variable vmaxpu=1.5 vminpu=0.93 daily="RES_7_DU"
 
New "Load.BT_8518_M1" bus1="UC20077.1.4" phases=1 conn=delta model=2 kv=0.22 kw = 0.0 pf=0.92 status=variable vmaxpu=1.5 vminpu=0.93 daily="RES_3_DU" 
New "Load.BT_8518_M2" bus1="UC20077.1.4" phases=1 conn=delta model=3 kv=0.22 kw = 0.0 pf=0.92 status=variable vmaxpu=1.5 vminpu=0.93 daily="RES_3_DU"
 
New "Load.BT_8018_M1" bus1="UC20072.1.2.3.4" phases=3 conn=delta model=2 kv=0.38 kw = 74.21872919860589 pf=0.92 status=variable vmaxpu=1.5 vminpu=0.93 daily="RES_2_DU" 
New "Load.BT_8018_M2" bus1="UC20072.1.2.3.4" phases=3 conn=delta model=3 kv=0.38 kw = 74.21872919860589 pf=0.92 status=variable vmaxpu=1.5 vminpu=0.93 daily="RES_2_DU"
 
New "Load.BT_2811_M1" bus1="UC4902.1.2.4" phases=2 conn=delta model=2 kv=0.38 kw = 19.791661119628234 pf=0.92 status=variable vmaxpu=1.5 vminpu=0.93 daily="RES_2_DU" 
New "Load.BT_2811_M2" bus1="UC4902.1.2.4" phases=2 conn=delta model=3 kv=0.38 kw = 19.791661119628234 pf=0.92 status=variable vmaxpu=1.5 vminpu=0.93 daily="RES_2_DU"
 
New "Load.BT_945_M1" bus1="UC5720.3.4" phases=1 conn=delta model=2 kv=0.22 kw = 252.34367927526 pf=0.92 status=variable vmaxpu=1.5 vminpu=0.93 daily="RES_2_DU" 
New "Load.BT_945_M2" bus1="UC5720.3.4" phases=1 conn=delta model=3 kv=0.22 kw = 252.34367927526 pf=0.92 status=variable vmaxpu=1.5 vminpu=0.93 daily="RES_2_DU"
 
New "Load.BT_8517_M1" bus1="UC20014.1.2.3.4" phases=3 conn=delta model=2 kv=0.38 kw = 1014.3226323809471 pf=0.92 status=variable vmaxpu=1.5 vminpu=0.93 daily="RES_2_DU" 
New "Load.BT_8517_M2" bus1="UC20014.1.2.3.4" phases=3 conn=delta model=3 kv=0.38 kw = 1014.3226323809471 pf=0.92 status=variable vmaxpu=1.5 vminpu=0.93 daily="RES_2_DU"
 
New "Load.BT_1925_M1" bus1="UC3106.1.4" phases=1 conn=delta model=2 kv=0.22 kw = 1054.3019312312354 pf=0.92 status=variable vmaxpu=1.5 vminpu=0.93 daily="RES_1_DU" 
New "Load.BT_1925_M2" bus1="UC3106.1.4" phases=1 conn=delta model=3 kv=0.22 kw = 1054.3019312312354 pf=0.92 status=variable vmaxpu=1.5 vminpu=0.93 daily="RES_1_DU"
 
New "Load.BT_663_M1" bus1="UC14776.1.2.4" phases=2 conn=delta model=2 kv=0.38 kw = 609.00150758037 pf=0.92 status=variable vmaxpu=1.5 vminpu=0.93 daily="COM_1_DU" 
New "Load.BT_663_M2" bus1="UC14776.1.2.4" phases=2 conn=delta model=3 kv=0.38 kw = 609.00150758037 pf=0.92 status=variable vmaxpu=1.5 vminpu=0.93 daily="COM_1_DU"
 
New "Load.BT_663_M1" bus1="UC14776.1.4" phases=1 conn=delta model=2 kv=0.22 kw = 1043.7059319223788 pf=0.92 status=variable vmaxpu=1.5 vminpu=0.93 daily="RES_1_DU" 
New "Load.BT_663_M2" bus1="UC14776.1.4" phases=1 conn=delta model=3 kv=0.22 kw = 1043.7059319223788 pf=0.92 status=variable vmaxpu=1.5 vminpu=0.93 daily="RES_1_DU"
 
New "Load.BT_459_M1" bus1="UC9463.3.4" phases=1 conn=delta model=2 kv=0.22 kw = 757.0310378257799 pf=0.92 status=variable vmaxpu=1.5 vminpu=0.93 daily="RES_2_DU" 
New "Load.BT_459_M2" bus1="UC9463.3.4" phases=1 conn=delta model=3 kv=0.22 kw = 757.0310378257799 pf=0.92 status=variable vmaxpu=1.5 vminpu=0.93 daily="RES_2_DU"
 
New "Load.BT_748_M1" bus1="UC3917.3.4" phases=1 conn=delta model=2 kv=0.22 kw = 994.5309712613189 pf=0.92 status=variable vmaxpu=1.5 vminpu=0.93 daily="RES_2_DU" 
New "Load.BT_748_M2" bus1="UC3917.3.4" phases=1 conn=delta model=3 kv=0.22 kw = 994.5309712613189 pf=0.92 status=variable vmaxpu=1.5 vminpu=0.93 daily="RES_2_DU"
 
New "Load.BT_7620_M1" bus1="UC20017.1.2.3.4" phases=3 conn=delta model=2 kv=0.38 kw = 1356.952771414068 pf=0.92 status=variable vmaxpu=1.5 vminpu=0.93 daily="RES_10_DU" 
New "Load.BT_7620_M2" bus1="UC20017.1.2.3.4" phases=3 conn=delta model=3 kv=0.38 kw = 1356.952771414068 pf=0.92 status=variable vmaxpu=1.5 vminpu=0.93 daily="RES_10_DU"
 
New "Load.BT_2952_M1" bus1="UC20157.3.4" phases=1 conn=delta model=2 kv=0.22 kw = 0.0 pf=0.92 status=variable vmaxpu=1.5 vminpu=0.93 daily="RES_7_DU" 
New "Load.BT_2952_M2" bus1="UC20157.3.4" phases=1 conn=delta model=3 kv=0.22 kw = 0.0 pf=0.92 status=variable vmaxpu=1.5 vminpu=0.93 daily="RES_7_DU"
 
New "Load.BT_1937_M1" bus1="UC20159.1.4" phases=1 conn=delta model=2 kv=0.22 kw = 0.0 pf=0.92 status=variable vmaxpu=1.5 vminpu=0.93 daily="RES_7_DU" 
New "Load.BT_1937_M2" bus1="UC20159.1.4" phases=1 conn=delta model=3 kv=0.22 kw = 0.0 pf=0.92 status=variable vmaxpu=1.5 vminpu=0.93 daily="RES_7_DU"
 
New "Load.BT_7292_M1" bus1="UC20158.2.3.4" phases=2 conn=delta model=2 kv=0.38 kw = 0.0 pf=0.92 status=variable vmaxpu=1.5 vminpu=0.93 daily="RES_7_DU" 
New "Load.BT_7292_M2" bus1="UC20158.2.3.4" phases=2 conn=delta model=3 kv=0.38 kw = 0.0 pf=0.92 status=variable vmaxpu=1.5 vminpu=0.93 daily="RES_7_DU"
 
New "Load.BT_8649_M1" bus1="UC16131.1.2.3.4" phases=3 conn=delta model=2 kv=0.38 kw = 0.0 pf=0.92 status=variable vmaxpu=1.5 vminpu=0.93 daily="COM_5_DU" 
New "Load.BT_8649_M2" bus1="UC16131.1.2.3.4" phases=3 conn=delta model=3 kv=0.38 kw = 0.0 pf=0.92 status=variable vmaxpu=1.5 vminpu=0.93 daily="COM_5_DU"
 
New "Load.BT_7507_M1" bus1="UC16308.2.4" phases=1 conn=delta model=2 kv=0.22 kw = 0.0 pf=0.92 status=variable vmaxpu=1.5 vminpu=0.93 daily="RES_7_DU" 
New "Load.BT_7507_M2" bus1="UC16308.2.4" phases=1 conn=delta model=3 kv=0.22 kw = 0.0 pf=0.92 status=variable vmaxpu=1.5 vminpu=0.93 daily="RES_7_DU"
 
New "Load.BT_2275_M1" bus1="UC20160.2.4" phases=1 conn=delta model=2 kv=0.22 kw = 0.0 pf=0.92 status=variable vmaxpu=1.5 vminpu=0.93 daily="RES_7_DU" 
New "Load.BT_2275_M2" bus1="UC20160.2.4" phases=1 conn=delta model=3 kv=0.22 kw = 0.0 pf=0.92 status=variable vmaxpu=1.5 vminpu=0.93 daily="RES_7_DU"
 
New "Load.BT_1838_M1" bus1="UC11113.3.4" phases=1 conn=delta model=2 kv=0.22 kw = 0.0 pf=0.92 status=variable vmaxpu=1.5 vminpu=0.93 daily="COM_5_DU" 
New "Load.BT_1838_M2" bus1="UC11113.3.4" phases=1 conn=delta model=3 kv=0.22 kw = 0.0 pf=0.92 status=variable vmaxpu=1.5 vminpu=0.93 daily="COM_5_DU"
 
New "Load.BT_2861_M1" bus1="UC1579.1.4" phases=1 conn=delta model=2 kv=0.22 kw = 0.0 pf=0.92 status=variable vmaxpu=1.5 vminpu=0.93 daily="RES_3_DU" 
New "Load.BT_2861_M2" bus1="UC1579.1.4" phases=1 conn=delta model=3 kv=0.22 kw = 0.0 pf=0.92 status=variable vmaxpu=1.5 vminpu=0.93 daily="RES_3_DU"
 
New "Load.BT_7961_M1" bus1="UC15997.2.3.4" phases=2 conn=delta model=2 kv=0.38 kw = 0.0 pf=0.92 status=variable vmaxpu=1.5 vminpu=0.93 daily="RES_3_DU" 
New "Load.BT_7961_M2" bus1="UC15997.2.3.4" phases=2 conn=delta model=3 kv=0.38 kw = 0.0 pf=0.92 status=variable vmaxpu=1.5 vminpu=0.93 daily="RES_3_DU"
 
New "Load.BT_2904_M1" bus1="UC20108.3.1.4" phases=2 conn=delta model=2 kv=0.38 kw = 0.0 pf=0.92 status=variable vmaxpu=1.5 vminpu=0.93 daily="RES_3_DU" 
New "Load.BT_2904_M2" bus1="UC20108.3.1.4" phases=2 conn=delta model=3 kv=0.38 kw = 0.0 pf=0.92 status=variable vmaxpu=1.5 vminpu=0.93 daily="RES_3_DU"
 
New "Load.BT_8511_M1" bus1="UC20109.1.2.3.4" phases=3 conn=delta model=2 kv=0.38 kw = 0.0 pf=0.92 status=variable vmaxpu=1.5 vminpu=0.93 daily="RES_3_DU" 
New "Load.BT_8511_M2" bus1="UC20109.1.2.3.4" phases=3 conn=delta model=3 kv=0.38 kw = 0.0 pf=0.92 status=variable vmaxpu=1.5 vminpu=0.93 daily="RES_3_DU"
 
New "Load.BT_463_M1" bus1="UC16004.3.4" phases=1 conn=delta model=2 kv=0.22 kw = 0.0 pf=0.92 status=variable vmaxpu=1.5 vminpu=0.93 daily="RES_7_DU" 
New "Load.BT_463_M2" bus1="UC16004.3.4" phases=1 conn=delta model=3 kv=0.22 kw = 0.0 pf=0.92 status=variable vmaxpu=1.5 vminpu=0.93 daily="RES_7_DU"
 
New "Load.BT_6668_M1" bus1="UC9379.1.4" phases=1 conn=delta model=2 kv=0.22 kw = 1123.1767685389025 pf=0.92 status=variable vmaxpu=1.5 vminpu=0.93 daily="RES_2_DU" 
New "Load.BT_6668_M2" bus1="UC9379.1.4" phases=1 conn=delta model=3 kv=0.22 kw = 1123.1767685389025 pf=0.92 status=variable vmaxpu=1.5 vminpu=0.93 daily="RES_2_DU"
 
New "Load.BT_2037_M1" bus1="UC4021.3.4" phases=1 conn=delta model=2 kv=0.22 kw = 623.4373252682894 pf=0.92 status=variable vmaxpu=1.5 vminpu=0.93 daily="RES_2_DU" 
New "Load.BT_2037_M2" bus1="UC4021.3.4" phases=1 conn=delta model=3 kv=0.22 kw = 623.4373252682894 pf=0.92 status=variable vmaxpu=1.5 vminpu=0.93 daily="RES_2_DU"
 
New "Load.BT_1224_M1" bus1="UC1788.1.4" phases=1 conn=delta model=2 kv=0.22 kw = 361.1978154332153 pf=0.92 status=variable vmaxpu=1.5 vminpu=0.93 daily="RES_2_DU" 
New "Load.BT_1224_M2" bus1="UC1788.1.4" phases=1 conn=delta model=3 kv=0.22 kw = 361.1978154332153 pf=0.92 status=variable vmaxpu=1.5 vminpu=0.93 daily="RES_2_DU"
 
New "Load.BT_969_M1" bus1="UC15681.1.4" phases=1 conn=delta model=2 kv=0.22 kw = 1157.8121754982517 pf=0.92 status=variable vmaxpu=1.5 vminpu=0.93 daily="RES_2_DU" 
New "Load.BT_969_M2" bus1="UC15681.1.4" phases=1 conn=delta model=3 kv=0.22 kw = 1157.8121754982517 pf=0.92 status=variable vmaxpu=1.5 vminpu=0.93 daily="RES_2_DU"
 
New "Load.BT_969_M1" bus1="UC15681.1.4" phases=1 conn=delta model=2 kv=0.22 kw = 1103.385107419274 pf=0.92 status=variable vmaxpu=1.5 vminpu=0.93 daily="RES_2_DU" 
New "Load.BT_969_M2" bus1="UC15681.1.4" phases=1 conn=delta model=3 kv=0.22 kw = 1103.385107419274 pf=0.92 status=variable vmaxpu=1.5 vminpu=0.93 daily="RES_2_DU"
 
New "Load.BT_8360_M1" bus1="UC15017.1.2.3.4" phases=3 conn=delta model=2 kv=0.38 kw = 250.06817911251218 pf=0.92 status=variable vmaxpu=1.5 vminpu=0.93 daily="IND_13_DU" 
New "Load.BT_8360_M2" bus1="UC15017.1.2.3.4" phases=3 conn=delta model=3 kv=0.38 kw = 250.06817911251218 pf=0.92 status=variable vmaxpu=1.5 vminpu=0.93 daily="IND_13_DU"
 
...